[TITLE]
City of Ann Arbor Storm Water Model
10% AEP 12-Hour Design Storm (SCS/Alternating Block Distribution)
Developed in InfoSWMM w/EPA SWMM 5.0.022 version
Last Updated 1/3/2015 by CDM Smith Inc


[OPTIONS]
;;Options           	Value
;;------------------	------------
FLOW_UNITS          	CFS
INFILTRATION        	GREEN_AMPT
FLOW_ROUTING        	DYNWAVE
START_DATE          	07/05/2014
START_TIME          	12:00:00
REPORT_START_DATE   	07/05/2014
REPORT_START_TIME   	12:00:00
END_DATE            	07/14/2014
END_TIME            	00:05:00
SWEEP_START         	01/01
SWEEP_END           	12/31
DRY_DAYS            	5.000000
REPORT_STEP         	00:01:00
WET_STEP            	00:01:00
DRY_STEP            	00:01:00
ROUTING_STEP        	00:01:00
ALLOW_PONDING       	YES
INERTIAL_DAMPING    	NONE
VARIABLE_STEP       	0.75
LENGTHENING_STEP    	5
MIN_SURFAREA        	0
NORMAL_FLOW_LIMITED 	SLOPE
SKIP_STEADY_STATE   	NO
FORCE_MAIN_EQUATION 	H-W
LINK_OFFSETS        	DEPTH
MIN_SLOPE           	0
IGNORE_SNOWMELT     	YES
IGNORE_GROUNDWATER  	YES
MAX_TRIALS          	8
HEAD_TOLERANCE      	0.005
SYS_FLOW_TOL        	5
LAT_FLOW_TOL        	5
MINIMUM_STEP        	0.5
THREADS             	1

[EVAPORATION]
;;Type         	Parameters
;;-------------	----------
CONSTANT    	0.000000
DRY_ONLY     NO

[RAINGAGES]
;;              	Rain     	Time  	Snow  	Data
;;Name          	Type     	Intrvl	Catch 	Source
;;--------------	---------	------	------	----------
R9032           	VOLUME   	0.083333	1.000000	TIMESERIES	DESIGN_10YR12HR_ALT
R9033           	VOLUME   	0.083333	1.000000	TIMESERIES	DESIGN_10YR12HR_ALT
R9037           	VOLUME   	0.083333	1.000000	TIMESERIES	DESIGN_10YR12HR_ALT
R9162           	VOLUME   	0.083333	1.000000	TIMESERIES	DESIGN_10YR12HR_ALT
R9163           	VOLUME   	0.083333	1.000000	TIMESERIES	DESIGN_10YR12HR_ALT
R9164           	VOLUME   	0.083333	1.000000	TIMESERIES	DESIGN_10YR12HR_ALT
R9294           	VOLUME   	0.083333	1.000000	TIMESERIES	DESIGN_10YR12HR_ALT
R9295           	VOLUME   	0.083333	1.000000	TIMESERIES	DESIGN_10YR12HR_ALT
R9296           	VOLUME   	0.083333	1.000000	TIMESERIES	DESIGN_10YR12HR_ALT
R9426           	VOLUME   	0.083333	1.000000	TIMESERIES	DESIGN_10YR12HR_ALT

[SUBCATCHMENTS]
;;              	                	                	Total   	Pcnt.   	        	Pcnt.   	Curb    	Snow
;;Name          	Raingage        	Outlet          	Area    	Imperv  	Width   	Slope   	Length  	Pack
;;--------------	----------------	----------------	--------	--------	--------	--------	--------	--------
102             	R9164           	93-90357        	2.84    	56      	1237    	2.14    	0
103             	R9164           	93-50225        	5.61    	41      	2444    	3.96    	0
115             	R9164           	93-49743        	10.31   	38      	898     	2.67    	0
120             	R9164           	93-49743        	6.69    	52      	2914    	2.52    	0
1472            	R9294           	93-49919        	3.21    	64      	1398    	2.62    	0
1497            	R9164           	93-50074        	14.97   	86      	6521    	1.36    	0
1499            	R9294           	93-49921        	25.24   	95      	10994   	1.04    	0
1503            	R9294           	93-50081        	1.34    	74      	584     	1.3     	0
1506            	R9163           	93-90358        	10.14   	51      	4417    	3.26    	0
1570            	R9164           	93-90357        	7.86    	32      	3424    	2.91    	0
1648            	R9164           	93-49743        	2.71    	45      	1180    	2.94    	0
1736            	R9164           	93-49743        	14.99   	55      	6530    	3.02    	0
1780            	R9164           	93-49743        	2.33    	40      	1015    	3.14    	0
54              	R9294           	93-50077        	36.37   	87      	15843   	1.08    	0
;pond
57              	R9294           	93-50076        	10.14   	32      	883     	3.09    	0
62              	R9294           	93-49921        	10.57   	36      	4604    	4.73    	0
93              	R9164           	93-50074        	8.22    	54      	3581    	4.11    	0
94              	R9163           	93-49868        	12.77   	35      	5563    	4.29    	0
97              	R9164           	93-49919        	19.64   	49      	8555    	3.67    	0

[SUBAREAS]
;;Subcatchment  	N-Imperv  	N-Perv    	S-Imperv  	S-Perv    	PctZero   	RouteTo   	PctRouted
;;--------------	----------	----------	----------	----------	----------	----------	----------
102             	0.05      	0.2       	0.08      	0.16      	25        	OUTLET
103             	0.05      	0.2       	0.08      	0.16      	25        	OUTLET
115             	0.05      	0.2       	0.08      	0.16      	25        	OUTLET
120             	0.05      	0.2       	0.08      	0.16      	25        	OUTLET
1472            	0.05      	0.2       	0.08      	0.16      	25        	OUTLET
1497            	0.05      	0.2       	0.08      	0.16      	25        	OUTLET
1499            	0.05      	0.2       	0.08      	0.16      	25        	OUTLET
1503            	0.05      	0.2       	0.08      	0.16      	25        	OUTLET
1506            	0.05      	0.2       	0.08      	0.16      	25        	OUTLET
1570            	0.05      	0.2       	0.08      	0.16      	25        	OUTLET
1648            	0.05      	0.2       	0.08      	0.16      	25        	OUTLET
1736            	0.05      	0.2       	0.08      	0.16      	25        	OUTLET
1780            	0.05      	0.2       	0.08      	0.16      	25        	OUTLET
54              	0.05      	0.2       	0.08      	0.16      	25        	OUTLET
57              	0.05      	0.2       	0.08      	0.16      	25        	OUTLET
62              	0.05      	0.2       	0.08      	0.16      	25        	OUTLET
93              	0.05      	0.2       	0.08      	0.16      	25        	OUTLET
94              	0.05      	0.2       	0.08      	0.16      	25        	OUTLET
97              	0.05      	0.2       	0.08      	0.16      	25        	OUTLET

[INFILTRATION]
;;Subcatchment  	Suction   	HydCon    	IMDmax
;;--------------	----------	----------	----------
102             	4.15      	1         	0.252
103             	4.858     	0.832     	0.232
115             	5.768     	0.616     	0.207
120             	4.858     	0.832     	0.232
1472            	4.554     	0.904     	0.241
1497            	4.757     	0.856     	0.235
1499            	5.431     	0.696     	0.216
1503            	5.127     	0.768     	0.225
1506            	4.15      	1         	0.252
1570            	4.992     	0.8       	0.228
1648            	4.15      	1         	0.252
1736            	4.15      	1         	0.252
1780            	4.15      	1         	0.252
54              	4.521     	0.912     	0.242
57              	4.184     	0.992     	0.251
62              	5.127     	0.768     	0.225
93              	4.588     	0.896     	0.24
94              	5.666     	0.64      	0.21
97              	4.521     	0.912     	0.242

[LID_CONTROLS]
;;              	Type/Layer	Parameters
;;--------------	----------	----------
PERVIOUS_PAVE   	PP
PERVIOUS_PAVE   	SURFACE   	1.000000  	0.000000  	0.013000  	0.020000  	0.000000
PERVIOUS_PAVE   	PAVEMENT  	6.000000  	0.200000  	0.000000  	100.000000	0.000000
PERVIOUS_PAVE   	STORAGE   	36.000000 	0.500000  	3.000000  	0.000000
PERVIOUS_PAVE   	DRAIN     	0.000000  	0.000000  	0.000000  	0.000000

PERVIOUS_PAVE_OUT	PP
PERVIOUS_PAVE_OUT	SURFACE   	1.000000  	0.000000  	0.013000  	0.020000  	0.000000
PERVIOUS_PAVE_OUT	PAVEMENT  	6.000000  	0.200000  	0.000000  	100.000000	0.000000
PERVIOUS_PAVE_OUT	STORAGE   	48.000000 	0.500000  	3.000000  	0.000000
PERVIOUS_PAVE_OUT	DRAIN     	0.320000  	0.500000  	0.000000  	0.000000

RAINGARDEN      	BC
RAINGARDEN      	SURFACE   	12.000000 	0.100000  	0.000000  	0.000000  	0.000000
RAINGARDEN      	SOIL      	6.000000  	0.400000  	0.220000  	0.130000  	6.000000  	5.000000  	4.300000
RAINGARDEN      	STORAGE   	34.000000 	0.400000  	3.000000  	0.000000
RAINGARDEN      	DRAIN     	0.000000  	0.000000  	0.000000  	0.000000

SANDFILTER      	BC
SANDFILTER      	SURFACE   	4.000000  	0.100000  	0.000000  	0.000000  	0.000000
SANDFILTER      	SOIL      	6.000000  	0.400000  	0.220000  	0.130000  	6.000000  	5.000000  	4.300000
SANDFILTER      	STORAGE   	34.000000 	0.400000  	0.000000  	0.000000
SANDFILTER      	DRAIN     	0.320000  	0.500000  	0.000000  	0.000000

[LID_USAGE]
;;Subcatchment  	LID Process     	Number 	Area      	Width     	InitSatur 	FromImprv 	ToPerv    	Report File             	Drain to
;;--------------	----------------	-------	----------	----------	----------	----------	----------	---------------------------	----------------

[JUNCTIONS]
;;              	Invert    	Max.      	Init.     	Surcharge 	Ponded
;;Name          	Elev.     	Depth     	Depth     	Depth     	Area
;;--------------	----------	----------	----------	----------	----------
J13             	888.17    	0         	0         	0         	0
J14             	881       	0         	0         	0         	0
J15             	871       	0         	0         	0         	0
J18             	874.22    	0         	0         	0         	0
J19             	858.28    	0         	0         	0         	0
J22             	879       	0         	0         	0         	0
J23             	868       	0         	0         	0         	0
J24             	846       	0         	0         	0         	0
J25             	832.5     	0         	0         	0         	0
J26             	821.5     	0         	0         	0         	0

[OUTFALLS]
;;              	Invert    	Outfall     	Stage/Table     	Tide
;;Name          	Elev.     	Type        	Time Series     	Gate	Route To
;;--------------	----------	------------	----------------	----	----------------
ZOF1            	810       	FREE        	                	NO

[STORAGE]
;;              	Invert  	Max.    	Init.   	Storage   	Curve   	        	        	Ponded  	Evap.
;;Name          	Elev.   	Depth   	Depth   	Curve     	Params  	        	        	Area    	Frac.   	Infiltration parameters
;;--------------	--------	--------	--------	----------	--------	--------	--------	--------	--------	-----------------------
;Oakbrook Condos Phase II
93-49743        	874.220000	14.960000	0.000000	TABULAR   	93-49743        		        	32993.000000	1.000000
;768 WAYMARKET DR., BASIN C
93-49868        	888.170000	10.000000	0.000000	TABULAR   	93-49868        		        	50000.000000	1.000000
;1501 BRIARWOOD CIRCLE (Extended Stay America)
93-49919        	868.000000	10.000000	0.000000	TABULAR   	93-49919        		        	50000.000000	1.000000
;1501 BRIARWOOD CIRCLE, DETENTION (Pond 3)
93-49921        	846     	10      	0       	TABULAR   	93-49921        		        	50000   	1
;Briarwood Circle (Pond 4)
93-50074        	858.280000	13.720000	0.000000	TABULAR   	93-50074        		        	50000.000000	1.000000
;Briarwood Circle (Pond 2)
93-50076        	832.5   	10      	0       	TABULAR   	93-50076        		        	50000   	1
;Briarwood Circle (Pond 1)
93-50077        	810     	10      	0       	TABULAR   	93-50077        		        	50000   	1
;BRIARWOOD CIRCLE (Lazy Boy)
93-50081        	821.5   	10      	0       	TABULAR   	93-50081        		        	50000   	1
;SIGNATURE BLVD AND WAYMARKET WAY
93-50225        	871.000000	20.000000	0.000000	TABULAR   	93-50225        		        	36888.000000	1.000000
;2956_2982 SIGNATURE BOULEVARD (Cambridge Condo)
93-90357        	879.000000	10.000000	0.000000	TABULAR   	93-90357        		        	50000.000000	1.000000
;650 WAYMARKET DR (Briar Cove Phase I (East))
93-90358        	881.000000	10.000000	0.000000	TABULAR   	93-90358        		        	50000.000000	1.000000

[CONDUITS]
;;              	Inlet           	Outlet          	          	Manning   	Inlet     	Outlet    	Init.     	Max.
;;Name          	Node            	Node            	Length    	N         	Offset    	Offset    	Flow      	Flow
;;--------------	----------------	----------------	----------	----------	----------	----------	----------	----------
C08             	J18             	93-50074        	1113.63   	0.01      	0         	0         	0         	0
C09             	J23             	93-49921        	184.86    	0.01      	0         	0         	0         	0
C10             	J24             	93-50076        	931.25    	0.01      	0         	0         	0         	0
C11             	J25             	93-50081        	182.46    	0.01      	0         	0         	0         	0
C12             	J26             	93-50077        	797.24    	0.01      	0         	0         	0         	0
C18             	J13             	93-90358        	268.65    	0.01      	0         	0         	0         	0
C19             	J14             	93-50225        	624.11    	0.01      	0         	0         	0         	0
C21             	J15             	93-49919        	1187.7    	0.01      	0         	0         	0         	0
C22             	J22             	93-50225        	140.89    	0.01      	0         	0         	0         	0
;95-68856
C95-53307       	J19             	93-49921        	635       	0.013     	0         	0         	0         	0

[ORIFICES]
;;              	Inlet           	Outlet          	Orifice     	Crest     	Disch.    	Flap	Open/Close
;;Name          	Node            	Node            	Type        	Height    	Coeff.    	Gate	Time
;;--------------	----------------	----------------	------------	----------	----------	----	----------
OR34            	93-49868        	J13             	BOTTOM      	0         	0.65      	NO  	0
OR35            	93-90358        	J14             	BOTTOM      	0         	0.65      	NO  	0
OR36            	93-50225        	J15             	BOTTOM      	0         	0.65      	NO  	0
OR38            	93-50074        	J19             	BOTTOM      	0         	0.65      	NO  	0
OR39            	93-49743        	J18             	BOTTOM      	0         	0.65      	NO  	0
OR43            	93-90357        	J22             	BOTTOM      	0         	0.65      	NO  	0
OR44            	93-49919        	J23             	BOTTOM      	0         	0.65      	NO  	0
OR45            	93-49921        	J24             	BOTTOM      	0         	0.65      	NO  	0
OR46            	93-50076        	J25             	BOTTOM      	0         	0.65      	NO  	0
OR47            	93-50081        	J26             	BOTTOM      	0         	0.65      	NO  	0
OR48            	93-50077        	ZOF1            	BOTTOM      	0         	0.65      	NO  	0

[XSECTIONS]
;;Link          	Shape       	Geom1           	Geom2     	Geom3     	Geom4     	Barrels
;;--------------	------------	----------------	----------	----------	----------	----------
C08             	CIRCULAR    	1               	0         	0         	0         	1
C09             	CIRCULAR    	1               	0         	0         	0         	1
C10             	CIRCULAR    	1               	0         	0         	0         	1
C11             	CIRCULAR    	1               	0         	0         	0         	1
C12             	CIRCULAR    	1               	0         	0         	0         	1
C18             	CIRCULAR    	1               	0         	0         	0         	1
C19             	CIRCULAR    	1               	0         	0         	0         	1
C21             	CIRCULAR    	1               	0         	0         	0         	1
C22             	CIRCULAR    	1.4             	0         	0         	0         	1
C95-53307       	CIRCULAR    	6.5             	0         	0         	0         	2         	0
OR34            	RECT_CLOSED 	1               	1         	0         	0
OR35            	RECT_CLOSED 	1               	1         	0         	0
OR36            	RECT_CLOSED 	1               	1         	0         	0
OR38            	RECT_CLOSED 	1               	1         	0         	0
OR39            	RECT_CLOSED 	1               	1         	0         	0
OR43            	RECT_CLOSED 	1               	1         	0         	0
OR44            	RECT_CLOSED 	1               	1         	0         	0
OR45            	RECT_CLOSED 	1               	1         	0         	0
OR46            	RECT_CLOSED 	1               	1         	0         	0
OR47            	RECT_CLOSED 	1               	1         	0         	0
OR48            	RECT_CLOSED 	1               	1         	0         	0

[TRANSECTS]

;Mallets Creekshed: field + contours
NC	0.075000	0.075000	0.035000
X1	MAC_BRIARCOVE1  	16      	41.420000	46.340000	0.0      	0.0      	0.000000	0.000000	0.000000
GR	20      	0       	5.82    	0.1     	3.82    	23.7    	2.18    	34      	1.95    	37.65
GR	1.8     	41.42   	0.27    	43.08   	0       	44.15   	0.66    	45.33   	1.65    	46.34
GR	1.98    	55.4    	2.59    	61.99   	3.48    	65.52   	5.15    	69.53   	5.92    	73.36
GR	20      	74

;Mallets Creekshed: field + contours
NC	0.075000	0.075000	0.035000
X1	MAC_BRIARCOVE2  	18      	69.930000	75.070000	0.0      	0.0      	0.000000	0.000000	0.000000
GR	20      	0       	6.02    	0.1     	4.02    	1.7     	2.02    	11      	1.89    	60
GR	1.39    	64.62   	1.75    	68.87   	1.04    	69.93   	0       	72.2    	0.89    	75.07
GR	1.31    	77.34   	1.47    	77.38   	1.91    	79.85   	1.63    	84.95   	2.02    	117.95
GR	4.02    	124.95  	6.02    	143.95  	20      	144

;Mallets Creekshed: field, L est from R
NC	0.075000	0.075000	0.035000
X1	MAC_WAYMARKET1  	14      	7.700000	16.100000	0.0      	0.0      	0.000000	0.000000	0.000000
GR	20      	0       	4.64    	0.1     	3.84    	1.5     	2.98    	2.8     	1.72    	4.9
GR	0.14    	7.7     	0       	12.2    	0.19    	16.1    	1.36    	20.4    	2.12    	23.5
GR	3.32    	25.9    	4.18    	28.9    	4.44    	32.9    	20      	33

;Mallets Creekshed: field + contours
NC	0.060000	0.040000	0.035000
X1	MAC_WAYMARKET3  	17      	42.390000	59.390000	0.0      	0.0      	0.000000	0.000000	0.000000
GR	20      	0       	6.11    	0.1     	4.11    	6       	2.77    	13      	2.47    	16
GR	2.28    	23.38   	2.08    	29.85   	1.85    	36.77   	1.03    	42.39   	0       	52.39
GR	1.19    	59.39   	1.69    	65.85   	2.32    	71.18   	3.64    	75.82   	4.93    	80.47
GR	6.11    	89      	20      	89.1

;Mallets Creekshed: field + contours
NC	0.040000	0.040000	0.035000
X1	MACSSW12951     	16      	22.900000	26.470000	0.0      	0.0      	0.000000	0.000000	0.000000
GR	13.48   	0       	11.48   	4       	6.79    	9       	5.34    	11.13   	4.01    	12.89
GR	2.58    	16.07   	1.88    	22.01   	0.38    	22.9    	0       	24.72   	0.47    	26.47
GR	2.13    	27.99   	3.01    	31.84   	7.48    	35.94   	8.48    	38.79   	11.48   	45.79
GR	13.48   	55.79

;Mallets Creekshed: field
NC	0.040000	0.040000	0.035000
X1	MACSSW15715     	15      	9.310000	21.200000	0.0      	0.0      	0.000000	0.000000	0.000000
GR	20      	0       	8.26    	0.1     	6.53    	2.76    	3.99    	7       	1.5     	9.31
GR	0       	16.02   	1.6     	21.2    	2.03    	22.81   	2.62    	25.9    	3.5     	27.91
GR	4.82    	30.59   	5.79    	31.73   	7       	33.62   	9.11    	37.5    	20      	38

;Mallets Creekshed: field + contours
NC	0.075000	0.075000	0.035000
X1	MACSSW16780     	19      	155.640000	163.460010	0.0      	0.0      	0.000000	0.000000	0.000000
GR	20      	0       	7.23    	0.1     	3.23    	18      	1.23    	127     	1.56    	140
GR	1.25    	144.74  	1.12    	147.03  	0.79    	149.93  	0.94    	155.64  	0.55    	158.02
GR	0       	159.6   	0.56    	161.63  	0.78    	163.46  	1.24    	168.26  	2.13    	170.86
GR	3.15    	174.21  	5.23    	179     	7.23    	185     	20      	185.1

;Mallets Creekshed: field + contours
NC	0.075000	0.075000	0.035000
X1	MACSSW17152     	17      	127.660000	133.899990	0.0      	0.0      	0.000000	0.000000	0.000000
GR	20      	0       	1.93    	0.1     	2.43    	98      	2.37    	123.29  	1.56    	125.88
GR	0.96    	127.66  	0       	130.25  	1.07    	133.9   	1.92    	136.4   	2.07    	136.86
GR	2.51    	139.1   	2.27    	142.63  	2.37    	168.96  	2.32    	175.62  	3.95    	232.62
GR	7.95    	305.62  	20      	306

;Mallets Creekshed: field
NC	0.075000	0.075000	0.035000
X1	MACSSW17152A    	14      	17.670000	24.800000	0.0      	0.0      	0.000000	0.000000	0.000000
GR	20      	0       	3.6     	0.1     	3.31    	7.45    	2.69    	11.07   	2.58    	17.67
GR	0       	19.84   	0.66    	23.68   	2.54    	24.8    	2.96    	26.89   	2.59    	43.5
GR	2.77    	52.95   	3.04    	91.57   	3.05    	129.57  	20      	129.67

;Mallets Creekshed: field + contours
NC	0.075000	0.075000	0.035000
X1	MACSSW5921      	18      	77.800000	86.800000	0.0      	0.0      	0.000000	0.000000	0.000000
GR	11.77   	0       	9.77    	17      	7.77    	37      	5.77    	55      	3.26    	71
GR	2.66    	76      	2.02    	77.8    	0       	78.9    	0.06    	82      	0.44    	86
GR	1.92    	86.8    	2.98    	89.1    	3.39    	89.7    	4.08    	89.9    	5.77    	91.6
GR	7.77    	97.9    	9.77    	104.4   	11.77   	111.5

;Mallets Creekshed: field
NC	0.075000	0.075000	0.035000
X1	MACSSW6390      	17      	126.000000	141.920000	0.0      	0.0      	0.000000	0.000000	0.000000
GR	9.49    	0       	9.49    	99      	7.49    	109     	5.49    	118     	4.05    	126
GR	0       	130.19  	0.22    	136.28  	0.39    	141.02  	1.26    	141.92  	2.24    	144.71
GR	3.45    	146.88  	4.25    	148.91  	5.85    	152.4   	6.38    	153.91  	7.49    	158
GR	9.49    	162     	11.49   	214.91

;Mallets Creekshed: field + contours
NC	0.075000	0.075000	0.035000
X1	MACSSW7019      	12      	26.860000	46.710000	0.0      	0.0      	0.000000	0.000000	0.000000
GR	20      	0       	7.96    	0.1     	5.96    	13      	4.97    	15      	4       	18.42
GR	0.6     	26.86   	0       	36.63   	0.64    	46.71   	3.31    	51.72   	4.4     	54.18
GR	7.96    	67.18   	20      	68

;typical road crown for 66-ft ROW and 33-ft-wide pavement
NC	0.025000	0.025000	0.018000
X1	ROAD_30FT       	11      	15.500000	50.500000	0.0      	0.0      	0.000000	0.000000	0.000000
GR	5       	0       	1.5     	0.1     	0.6     	7       	0.5     	15.5    	0       	16.5
GR	0.5     	33      	0       	49.5    	0.5     	50.5    	0.6     	59      	1.5     	65.9
GR	5       	66

[LOSSES]
;;Link          	Inlet     	Outlet    	Average   	Flap Gate 	SeepageRate
;;--------------	----------	----------	----------	----------	----------
C95-53307       	0.2       	1         	0         	NO        	0

[POLLUTANTS]
;;              	Mass  	Rain      	GW        	I&I       	Decay     	Snow 	Co-Pollut.      	Co-Pollut.	DWF       	Init.
;;Name          	Units 	Concen.   	Concen.   	Concen.   	Coeff.    	Only 	Name            	Fraction  	Concen.   	Concen.
;;--------------	------	----------	----------	----------	----------	-----	----------------	----------	----------	----------
TSS             	MG/L  	0         	0         	0         	0         	NO   	*               	0.0       	0         	0

[LANDUSES]
;;              	Cleaning  	Fraction  	Last
;;Name          	Interval  	Available 	Cleaned
;;--------------	----------	----------	----------
Commercial      	0         	0         	0
Industrial      	0         	0         	0
Residential     	0         	0         	0

[COVERAGES]
;;Subcatchment  	Land Use        	Percent
;;--------------	----------------	----------
102             	Commercial      	55
102             	Industrial      	30
102             	Residential     	15
103             	Commercial      	55
103             	Industrial      	30
103             	Residential     	15
115             	Commercial      	55
115             	Industrial      	30
115             	Residential     	15
120             	Commercial      	55
120             	Industrial      	30
120             	Residential     	15
1472            	Commercial      	55
1472            	Industrial      	30
1472            	Residential     	15
1497            	Commercial      	55
1497            	Industrial      	30
1497            	Residential     	15
1499            	Commercial      	55
1499            	Industrial      	30
1499            	Residential     	15
1503            	Commercial      	55
1503            	Industrial      	30
1503            	Residential     	15
1506            	Commercial      	55
1506            	Industrial      	30
1506            	Residential     	15
1570            	Commercial      	55
1570            	Industrial      	30
1570            	Residential     	15
1648            	Commercial      	55
1648            	Industrial      	30
1648            	Residential     	15
1736            	Commercial      	55
1736            	Industrial      	30
1736            	Residential     	15
1780            	Commercial      	55
1780            	Industrial      	30
1780            	Residential     	15
54              	Commercial      	55
54              	Industrial      	30
54              	Residential     	15
57              	Commercial      	55
57              	Industrial      	30
57              	Residential     	15
62              	Commercial      	55
62              	Industrial      	30
62              	Residential     	15
93              	Commercial      	55
93              	Industrial      	30
93              	Residential     	15
94              	Commercial      	55
94              	Industrial      	30
94              	Residential     	15
97              	Commercial      	55
97              	Industrial      	30
97              	Residential     	15

[LOADINGS]
;;Subcatchment  	Pollutant       	Loading
;;--------------	----------------	----------

[BUILDUP]
;;LandUse       	Pollutant       	Function  	Coeff1    	Coeff2    	Coeff3    	Normalizer
;;--------------	----------------	----------	----------	----------	----------	----------
Commercial      	TSS             	EXP       	12        	5         	0.0       	AREA
Industrial      	TSS             	EXP       	27        	0.5       	0.0       	AREA
Residential     	TSS             	EXP       	21        	0.3       	0.0       	AREA

[WASHOFF]
;;              	                	          	          	          	Cleaning  	BMP
;;Land Use      	Pollutant       	Function  	Coeff1    	Coeff2    	Effic.    	Effic.
;;--------------	----------------	----------	----------	----------	----------	----------
Commercial      	TSS             	EMC       	25        	2         	0.0       	0.0
Industrial      	TSS             	EMC       	21        	2         	0.0       	0.0
Residential     	TSS             	EMC       	29        	2         	0.0       	0.0

[HYDROGRAPHS]
;;              	Rain Gage/
;;Name          	Month           	Response	R       	T       	K       	IA_max  	IA_rec  	IA_ini
;;--------------	----------------	--------	--------	--------	--------	--------	--------	--------
UPWMA1          	R9164
UPWMA1          	Jan             	Short   	0.000000	0.000000	0.000000	0.300000	0.100000	0.001000
UPWMA1          	Jan             	Medium  	0.200000	4.000000	2.000000	0.300000	0.100000	0.001000
UPWMA1          	Jan             	Long    	0.200000	8.000000	8.000000	0.300000	0.100000	0.001000
UPWMA1          	Feb             	Short   	0.000000	0.000000	0.000000	0.300000	0.100000	0.001000
UPWMA1          	Feb             	Medium  	0.200000	4.000000	2.000000	0.300000	0.100000	0.001000
UPWMA1          	Feb             	Long    	0.200000	8.000000	8.000000	0.300000	0.100000	0.001000
UPWMA1          	Mar             	Short   	0.000000	0.000000	0.000000	0.300000	0.100000	0.001000
UPWMA1          	Mar             	Medium  	0.200000	4.000000	2.000000	0.300000	0.100000	0.001000
UPWMA1          	Mar             	Long    	0.200000	8.000000	8.000000	0.300000	0.100000	0.001000
UPWMA1          	Apr             	Short   	0.000000	0.000000	0.000000	0.300000	0.100000	0.001000
UPWMA1          	Apr             	Medium  	0.200000	4.000000	2.000000	0.300000	0.100000	0.001000
UPWMA1          	Apr             	Long    	0.200000	8.000000	8.000000	0.300000	0.100000	0.001000
UPWMA1          	May             	Short   	0.000000	0.000000	0.000000	0.300000	0.100000	0.001000
UPWMA1          	May             	Medium  	0.100000	4.000000	4.000000	0.300000	0.100000	0.001000
UPWMA1          	May             	Long    	0.050000	8.000000	10.000000	0.300000	0.100000	0.001000
UPWMA1          	Jun             	Short   	0.000000	0.000000	0.000000	0.300000	0.100000	0.001000
UPWMA1          	Jun             	Medium  	0.100000	4.000000	4.000000	0.300000	0.100000	0.001000
UPWMA1          	Jun             	Long    	0.050000	8.000000	10.000000	0.300000	0.100000	0.001000
UPWMA1          	Jul             	Short   	0.000000	0.000000	0.000000	0.300000	0.100000	0.001000
UPWMA1          	Jul             	Medium  	0.100000	4.000000	4.000000	0.300000	0.100000	0.001000
UPWMA1          	Jul             	Long    	0.050000	8.000000	10.000000	0.300000	0.100000	0.001000
UPWMA1          	Aug             	Short   	0.000000	0.000000	0.000000	0.300000	0.100000	0.001000
UPWMA1          	Aug             	Medium  	0.100000	4.000000	4.000000	0.300000	0.100000	0.001000
UPWMA1          	Aug             	Long    	0.050000	8.000000	10.000000	0.300000	0.100000	0.001000
UPWMA1          	Sep             	Short   	0.000000	0.000000	0.000000	0.300000	0.100000	0.001000
UPWMA1          	Sep             	Medium  	0.100000	4.000000	4.000000	0.300000	0.100000	0.001000
UPWMA1          	Sep             	Long    	0.050000	8.000000	10.000000	0.300000	0.100000	0.001000
UPWMA1          	Oct             	Short   	0.000000	0.000000	0.000000	0.300000	0.100000	0.001000
UPWMA1          	Oct             	Medium  	0.100000	4.000000	4.000000	0.300000	0.100000	0.001000
UPWMA1          	Oct             	Long    	0.050000	8.000000	10.000000	0.300000	0.100000	0.001000
UPWMA1          	Nov             	Short   	0.000000	0.000000	0.000000	0.300000	0.100000	0.001000
UPWMA1          	Nov             	Medium  	0.200000	4.000000	4.000000	0.300000	0.100000	0.001000
UPWMA1          	Nov             	Long    	0.200000	8.000000	10.000000	0.300000	0.100000	0.001000
UPWMA1          	Dec             	Short   	0.000000	0.000000	0.000000	0.300000	0.100000	0.001000
UPWMA1          	Dec             	Medium  	0.200000	4.000000	2.000000	0.300000	0.100000	0.001000
UPWMA1          	Dec             	Long    	0.200000	8.000000	8.000000	0.300000	0.100000	0.001000
UPWMA2          	R9296