{\rtf1\ansi\ansicpg1252\cocoartf1504\cocoasubrtf810
{\fonttbl\f0\fswiss\fcharset0 Helvetica;}
{\colortbl;\red255\green255\blue255;}
{\*\expandedcolortbl;;}
\margl1440\margr1440\vieww26120\viewh15480\viewkind0
\pard\tx720\tx1440\tx2160\tx2880\tx3600\tx4320\tx5040\tx5760\tx6480\tx7200\tx7920\tx8640\pardirnatural\partightenfactor0

\f0\fs24 \cf0 \
\
[COORDINATES]\
;;Node           X-Coord          Y-Coord         \
;;-------------- ---------------- ----------------\
1                      13292315.161     269516.328      \
91-51098         13285372.204     273415.995      \
93-49743         13289643.185     271745.062      \
93-49839         13287737.804     271687.379      \
93-49868         13288433.826     271231.033      \
93-49869         13288343.961     271376.664      \
93-49870         13288319.694     271489.071      \
93-49919         13289921.822     269944.177      \
93-49921         13290104.278     269914.509      \
93-50074         13289953.884     270675.717      \
93-50076         13290919.05      269463.631      \
93-50077         13291897.67      269423.15       \
93-50081         13291100.867     269448.455      \
93-50225         13289271.16      270937.709      \
93-50227         13287995.031     271621.668      \
93-50228         13288069.944     271726.981      \
93-50230         13288915.059     271953.35       \
93-90357         13289369.645     271038.425      \
93-90358         13288698.692     271186.2        \
LOHRRD           13287138.446     271348.014      \
OAKVALLEY1       13284491.961     273374.94       \
WATERSRD1        13285828.237     271793.969      \
WATERSRD2        13284838.824     271220.301      \
WATERSRD3        13284361.719     271572.736\
\
\
[CONDUITS]\
;;               Inlet            Outlet                      Manning    Inlet      Outlet     Init.      Max.      \
;;Name           Node             Node             Length     N          Offset     Offset     Flow       Flow      \
;;-------------- ---------------- ---------------- ---------- ---------- ---------- ---------- ---------- ----------\
1                WATERSRD2        WATERSRD1        1143.72    0.01       0          0          0          0         \
10               93-49921         93-50076         931.25     0.01       0          0          0          0         \
11               93-50076         93-50081         182.46     0.01       0          0          0          0         \
12               93-50081         93-50077         797.24     0.01       0          0          0          0         \
13               93-50077         1                427.77     0.01       0          0          0          0         \
14               93-50228         93-49870         344.96     0.01       0          0          0          0         \
15               93-50227         93-50228         129.22     0.01       0          0          0          0         \
16               93-49870         93-49869         115.03     0.01       0          0          0          0         \
17               93-49869         93-49868         171.16     0.01       0          0          0          0         \
18               93-49868         93-90358         268.65     0.01       0          0          0          0         \
19               93-90358         93-50225         624.11     0.01       0          0          0          0         \
2                WATERSRD1        LOHRRD           1384.09    0.01       0          0          0          0         \
20               93-50225         93-90357         140.85     0.01       0          0          0          0         \
21               93-50225         93-49919         1187.7     0.01       0          0          0          0         \
22               93-90357         93-50225         140.89     0.01       0          0          0          0         \
3                LOHRRD           93-49839         688.78     0.01       0          0          0          0         \
4                93-49839         93-50227         265.5      0.01       0          0          0          0         \
5                93-50227         93-50228         129.22     0.01       0          0          0          0         \
6                93-50228         93-50227         129.27     0.01       0          0          0          0         \
7                91-51098         93-50230         3833.06    0.01       0          0          0          0         \
8                93-49743         93-50074         1113.63    0.01       0          0          0          0         \
9                93-49919         93-49921         184.86     0.01       0          0          0          0         \
;95-68856\
95-53307         93-50074         93-49921         635.000000 0.013000   5.600000   0.000000   0.000000   0.000000  \
;US Node merged w/jn; DS Node combined with storage\
95-67716         93-50230         93-49743         148.000000 0.013000   6.290000   13.100000  0.000000   0.000000  \
95-81105_3       WATERSRD3        WATERSRD2        593.000000 0.013000   0.000000   0.000000   0.000000   0.000000  \
95-81112         OAKVALLEY1       91-51098         700.000000 0.013000   0.000000   2.000000   0.000000   16.200000 }