[TITLE]
;;Project Title/Notes
City of Ann Arbor Storm Water Model
10% AEP 12-Hour Design Storm (SCS/Alternating Block Distribution)
Developed in InfoSWMM w/EPA SWMM 5.0.022 version
Last Updated 1/3/2015 by CDM Smith Inc

[OPTIONS]
;;Option             Value
FLOW_UNITS           CFS
INFILTRATION         GREEN_AMPT
FLOW_ROUTING         DYNWAVE
LINK_OFFSETS         DEPTH
MIN_SLOPE            0
ALLOW_PONDING        YES
SKIP_STEADY_STATE    NO

IGNORE_SNOWMELT      YES
IGNORE_GROUNDWATER   YES
START_DATE           07/05/2014
START_TIME           12:00:00
REPORT_START_DATE    07/05/2014
REPORT_START_TIME    12:00:00
END_DATE             07/07/2014
END_TIME             12:00:00
SWEEP_START          01/01
SWEEP_END            12/31
DRY_DAYS             5.000000
REPORT_STEP          01:00:00
WET_STEP             01:00:00
DRY_STEP             01:00:00
ROUTING_STEP         00:00:10

INERTIAL_DAMPING     NONE
NORMAL_FLOW_LIMITED  SLOPE
FORCE_MAIN_EQUATION  H-W
VARIABLE_STEP        0.00
LENGTHENING_STEP     5
MIN_SURFAREA         12.557
MAX_TRIALS           8
HEAD_TOLERANCE       0.005
SYS_FLOW_TOL         5
LAT_FLOW_TOL         5
MINIMUM_STEP         0.5
THREADS              1

[EVAPORATION]
;;Data Source    Parameters
;;-------------- ----------------
CONSTANT         0.000000
DRY_ONLY         NO

[RAINGAGES]
;;Name           Format    Interval SCF      Source
;;-------------- --------- ------ ------ ----------
R9032            VOLUME    0.083333 1.000000 TIMESERIES DESIGN_10YR12HR_ALT
R9033            VOLUME    0.083333 1.000000 TIMESERIES DESIGN_10YR12HR_ALT
R9037            VOLUME    0.083333 1.000000 TIMESERIES DESIGN_10YR12HR_ALT
R9162            VOLUME    0.083333 1.000000 TIMESERIES DESIGN_10YR12HR_ALT
R9163            VOLUME    0.083333 1.000000 TIMESERIES DESIGN_10YR12HR_ALT
R9164            VOLUME    0.083333 1.000000 TIMESERIES DESIGN_10YR12HR_ALT
R9294            VOLUME    0.083333 1.000000 TIMESERIES DESIGN_10YR12HR_ALT
R9295            VOLUME    0.083333 1.000000 TIMESERIES DESIGN_10YR12HR_ALT
R9296            VOLUME    0.083333 1.000000 TIMESERIES DESIGN_10YR12HR_ALT
R9426            VOLUME    0.083333 1.000000 TIMESERIES DESIGN_10YR12HR_ALT

[SUBCATCHMENTS]
;;Name           Rain Gage        Outlet           Area     %Imperv  Width    %Slope   CurbLen  SnowPack
;;-------------- ---------------- ---------------- -------- -------- -------- -------- -------- ----------------
102              R9164            93-90357         2.84     56       1237     2.14     0
103              R9164            93-50225         5.61     41       2444     3.96     0
115              R9164            93-49743         10.31    38       898      2.67     0
120              R9164            93-49743         6.69     52       2914     2.52     0
134              R9163            93-50227         2.18     75       950      2.35     0
1388             R9164            93-50230         6.41     56       2792     3.08     0
1472             R9294            93-49919         3.21     64       1398     2.62     0
1497             R9164            93-50074         14.97    86       6521     1.36     0
1499             R9294            93-49921         25.24    95       10994    1.04     0
1503             R9294            93-50081         1.34     74       584      1.3      0
1506             R9163            93-90358         10.14    51       4417     3.26     0
1570             R9164            93-90357         7.86     32       3424     2.91     0
1572             R9163            93-49839         8.04     59       3502     2.71     0
162              R9163            93-49839         80.14    29       34909    4.06     0
;detention
163              R9162            WATERSRD1        39.29    67       17115    2.84     0
1648             R9164            93-49743         2.71     45       1180     2.94     0
165              R9163            93-50230         6.41     43       2792     2.98     0
;channel-open
1650             R9163            91-51098         16.75    15       1459     3.46     0
169              R9163            93-50230         18.33    81       7984     2.9      0
;detention
1706             R9162            WATERSRD2        81.69    33       35584    2.59     0
1735             R9163            93-50230         10.35    62       4508     2.65     0
1736             R9164            93-49743         14.99    55       6530     3.02     0
175              R9164            93-50230         4.62     43       2012     6.03     0
1776             R9163            93-50230         1.31     49       571      3.49     0
1778             R9163            93-50230         4.61     66       2008     2.17     0
1780             R9164            93-49743         2.33     40       1015     3.14     0
182              R9163            91-51098         14.58    53       6351     3.21     0
183              R9163            91-51098         12.47    42       5432     2.85     0
;detention
185              R9162            WATERSRD3        68.71    35       19953    2.44     0
191              R9033            91-51098         10.92    42       4757     3.08     0
;open
222              R9032            91-51098         32.01    19       2789     3.26     0
;detention
230              R9162            OAKVALLEY1       106.83   31       31023    2.26     0
54               R9294            93-50077         36.37    87       15843    1.08     0
;pond
57               R9294            93-50076         10.14    32       883      3.09     0
62               R9294            93-49921         10.57    36       4604     4.73     0
93               R9164            93-50074         8.22     54       3581     4.11     0
94               R9163            93-49868         12.77    35       5563     4.29     0
97               R9164            93-49919         19.64    49       8555     3.67     0
98               R9163            93-49870         2.07     49       902      3.02     0
;detention
99               R9163            LOHRRD           46.71    65       20347    2.53     0

[SUBAREAS]
;;Subcatchment   N-Imperv   N-Perv     S-Imperv   S-Perv     PctZero    RouteTo    PctRouted
;;-------------- ---------- ---------- ---------- ---------- ---------- ---------- ----------
102              0.05       0.2        0.08       0.16       25         OUTLET
103              0.05       0.2        0.08       0.16       25         OUTLET
115              0.05       0.2        0.08       0.16       25         OUTLET
120              0.05       0.2        0.08       0.16       25         OUTLET
134              0.05       0.2        0.08       0.16       25         OUTLET
1388             0.05       0.2        0.08       0.16       25         OUTLET
1472             0.05       0.2        0.08       0.16       25         OUTLET
1497             0.05       0.2        0.08       0.16       25         OUTLET
1499             0.05       0.2        0.08       0.16       25         OUTLET
1503             0.05       0.2        0.08       0.16       25         OUTLET
1506             0.05       0.2        0.08       0.16       25         OUTLET
1570             0.05       0.2        0.08       0.16       25         OUTLET
1572             0.05       0.2        0.08       0.16       25         OUTLET
162              0.05       0.2        0.08       0.16       25         OUTLET
163              0.05       0.2        0.08       0.16       25         OUTLET
1648             0.05       0.2        0.08       0.16       25         OUTLET
165              0.05       0.2        0.08       0.16       25         OUTLET
1650             0.05       0.2        0.08       0.16       25         OUTLET
169              0.05       0.2        0.08       0.16       25         OUTLET
1706             0.05       0.2        0.08       0.16       25         OUTLET
1735             0.05       0.2        0.08       0.16       25         OUTLET
1736             0.05       0.2        0.08       0.16       25         OUTLET
175              0.05       0.2        0.08       0.16       25         OUTLET
1776             0.05       0.2        0.08       0.16       25         OUTLET
1778             0.05       0.2        0.08       0.16       25         OUTLET
1780             0.05       0.2        0.08       0.16       25         OUTLET
182              0.05       0.2        0.08       0.16       25         OUTLET
183              0.05       0.2        0.08       0.16       25         OUTLET
185              0.05       0.2        0.08       0.16       25         OUTLET
191              0.05       0.2        0.08       0.16       25         OUTLET
222              0.05       0.2        0.08       0.16       25         OUTLET
230              0.05       0.2        0.08       0.16       25         OUTLET
54               0.05       0.2        0.08       0.16       25         OUTLET
57               0.05       0.2        0.08       0.16       25         OUTLET
62               0.05       0.2        0.08       0.16       25         OUTLET
93               0.05       0.2        0.08       0.16       25         OUTLET
94               0.05       0.2        0.08       0.16       25         OUTLET
97               0.05       0.2        0.08       0.16       25         OUTLET
98               0.05       0.2        0.08       0.16       25         OUTLET
99               0.05       0.2        0.08       0.16       25         OUTLET

[INFILTRATION]
;;Subcatchment   Suction    Ksat       IMD
;;-------------- ---------- ---------- ----------
102              4.15       1          0.252
103              4.858      0.832      0.232
115              5.768      0.616      0.207
120              4.858      0.832      0.232
134              4.352      0.952      0.246
1388             4.15       1          0.252
1472             4.554      0.904      0.241
1497             4.757      0.856      0.235
1499             5.431      0.696      0.216
1503             5.127      0.768      0.225
1506             4.15       1          0.252
1570             4.992      0.8        0.228
1572             4.554      0.904      0.241
162              5.06       0.784      0.227
163              4.689      0.872      0.237
1648             4.15       1          0.252
165              5.06       0.784      0.227
1650             4.318      0.96       0.247
169              5.161      0.76       0.224
1706             4.285      0.968      0.248
1735             4.15       1          0.252
1736             4.15       1          0.252
175              4.622      0.888      0.239
1776             4.15       1          0.252
1778             4.15       1          0.252
1780             4.15       1          0.252
182              4.959      0.808      0.229
183              4.992      0.8        0.228
185              4.285      0.968      0.248
191              4.15       1          0.252
222              4.588      0.896      0.24
230              4.318      0.96       0.247
54               4.521      0.912      0.242
57               4.184      0.992      0.251
62               5.127      0.768      0.225
93               4.588      0.896      0.24
94               5.666      0.64       0.21
97               4.521      0.912      0.242
98               4.453      0.928      0.244
99               4.656      0.88       0.238

[LID_CONTROLS]
;;Name           Type/Layer Parameters
;;-------------- ---------- ----------
PERVIOUS_PAVE    PP
PERVIOUS_PAVE    SURFACE    1.000000   0.000000   0.013000   0.020000   0.000000
PERVIOUS_PAVE    PAVEMENT   6.000000   0.200000   0.000000   100.000000 0.000000
PERVIOUS_PAVE    STORAGE    36.000000  0.500000   3.000000   0.000000
PERVIOUS_PAVE    DRAIN      0.000000   0.000000   0.000000   0.000000

PERVIOUS_PAVE_OUT PP
PERVIOUS_PAVE_OUT SURFACE    1.000000   0.000000   0.013000   0.020000   0.000000
PERVIOUS_PAVE_OUT PAVEMENT   6.000000   0.200000   0.000000   100.000000 0.000000
PERVIOUS_PAVE_OUT STORAGE    48.000000  0.500000   3.000000   0.000000
PERVIOUS_PAVE_OUT DRAIN      0.320000   0.500000   0.000000   0.000000

RAINGARDEN       BC
RAINGARDEN       SURFACE    12.000000  0.100000   0.000000   0.000000   0.000000
RAINGARDEN       SOIL       6.000000   0.400000   0.220000   0.130000   6.000000   5.000000   4.300000
RAINGARDEN       STORAGE    34.000000  0.400000   3.000000   0.000000
RAINGARDEN       DRAIN      0.000000   0.000000   0.000000   0.000000

SANDFILTER       BC
SANDFILTER       SURFACE    4.000000   0.100000   0.000000   0.000000   0.000000
SANDFILTER       SOIL       6.000000   0.400000   0.220000   0.130000   6.000000   5.000000   4.300000
SANDFILTER       STORAGE    34.000000  0.400000   0.000000   0.000000
SANDFILTER       DRAIN      0.320000   0.500000   0.000000   0.000000

[LID_USAGE]
;;Subcatchment   LID Process      Number  Area       Width      InitSat    FromImp    ToPerv     RptFile                  DrainTo
;;-------------- ---------------- ------- ---------- ---------- ---------- ---------- ---------- ------------------------ ----------------

[JUNCTIONS]
;;Name           Elevation  MaxDepth   InitDepth  SurDepth   Aponded
;;-------------- ---------- ---------- ---------- ---------- ----------
2                874.220000 0          0          0          0
3                853.000000 0          0          0          0
4                862.000000 0          0          0          0
5                871.000000 0          0          0          0
6                906.00     0          0          0          0

[OUTFALLS]
;;Name           Elevation  Type       Stage Data       Gated    Route To
;;-------------- ---------- ---------- ---------------- -------- ----------------
1                0          FREE                        NO

[STORAGE]
;;Name           Elev.    MaxDepth   InitDepth  Shape      Curve Name/Params            N/A      Fevap    Psi      Ksat     IMD
;;-------------- -------- ---------- ----------- ---------- ---------------------------- -------- --------          -------- --------
;Open-To-Close Discharge Point
91-51098         920.000000 20.000000  0.000000   FUNCTIONAL 0.000000  0.000000  130000.000000 130000.000000 0.000000
;Oakbrook Condos Phase II
93-49743         874.220000 14.960000  0.000000   TABULAR    93-49743                     32993.000000 1.000000
;990 W EISENHOWER PKWY (Fairfax center on Eisenhower circle)
93-49839         887.360000 10.000000  0.000000   TABULAR    93-49839                     50000.000000 1.000000
;768 WAYMARKET DR., BASIN C
93-49868         888.170000 10.000000  0.000000   TABULAR    93-49868                     50000.000000 1.000000
;768 WAYMARKET DR., BASIN B
93-49869         892.000000 10.000000  0.000000   TABULAR    93-49869                     50000.000000 1.000000
;768 WAYMARKET DR, BASIN A
93-49870         897.310000 10.000000  0.000000   TABULAR    93-49870                     50000.000000 1.000000
;1501 BRIARWOOD CIRCLE (Extended Stay America)
93-49919         868.000000 10.000000  0.840000   TABULAR    93-49919                     50000.000000 1.000000
;1501 BRIARWOOD CIRCLE, DETENTION (Pond 3)
93-49921         862.000000 10.000000  0.000000   TABULAR    93-49921                     50000.000000 1.000000
;Briarwood Circle (Pond 4)
93-50074         858.280000 13.720000  5.600000   TABULAR    93-50074                     50000.000000 1.000000
;Briarwood Circle (Pond 2)
93-50076         858.000000 10.000000  1.830000   TABULAR    93-50076                     50000.000000 1.000000
;Briarwood Circle (Pond 1)
93-50077         853.000000 10.000000  1.000000   TABULAR    93-50077                     50000.000000 1.000000
;BRIARWOOD CIRCLE (Lazy Boy)
93-50081         861.500000 10.000000  0.000000   TABULAR    93-50081                     50000.000000 1.000000
;SIGNATURE BLVD AND WAYMARKET WAY
93-50225         871.000000 20.000000  3.000000   TABULAR    93-50225                     36888.000000 1.000000
;701 WAYMARKET DR (filtration pond)
93-50227         893.800000 10.000000  0.000000   TABULAR    93-50224_2                   50000.000000 1.000000
;701 WAYMARKET DR (parking lot pond)
93-50228         901.200000 10.000000  0.000000   TABULAR    93-50224_3                   50000.000000 1.000000
;Oakbrook Condos Phase II Pond B (east of Eisenhower and Nort
93-50230         882.000000 20.000000  2.550000   TABULAR    93-50230                     50000.000000 1.000000
;2956_2982 SIGNATURE BOULEVARD (Cambridge Condo)
93-90357         879.000000 10.000000  0.000000   TABULAR    93-90357                     50000.000000 1.000000
;650 WAYMARKET DR (Briar Cove Phase I (East))
93-90358         881.000000 10.000000  0.000000   TABULAR    93-90358                     50000.000000 1.000000
LOHRRD           890.000000 10.000000  0.000000   FUNCTIONAL 0.000000  0.000000  116900.000000 116900.000000 0.000000
OAKVALLEY1       924.000000 10.000000  0.000000   FUNCTIONAL 0.000000  0.000000  100000.000000 100000.000000 1.000000
WATERSRD1        906.000000 10.000000  0.000000   TABULAR    WATERSRD1                    73400.000000 1.000000
WATERSRD2        908.000000 10.000000  0.000000   TABULAR    WATERSRD2                    50000.000000 0.000000
WATERSRD3        918.000000 10.000000  0.000000   FUNCTIONAL 0.000000  0.000000  14000.000000 14000.000000 1.000000

[CONDUITS]
;;Name           From Node        To Node          Length     Roughness  InOffset   OutOffset  InitFlow   MaxFlow
;;-------------- ---------------- ---------------- ---------- ---------- ---------- ---------- ---------- ----------
1                WATERSRD2        WATERSRD1        1143.72    0.01       0          0          0          0
11               93-50076         93-50081         182.46     0.01       0          0          0          0
12               93-50081         93-50077         797.24     0.01       0          0          0          0
14               93-50228         93-49870         344.96     0.01       0          0          0          0
15               93-50227         93-50228         129.22     0.01       0          0          0          0
16               93-49870         93-49869         115.03     0.01       0          0          0          0
17               93-49869         93-49868         171.16     0.01       0          0          0          0
18               93-49868         93-90358         268.65     0.01       0          0          0          0
19               93-90358         93-50225         624.11     0.01       0          0          0          0
20               93-50225         93-90357         140.85     0.01       0          0          0          0
22               93-90357         93-50225         140.89     0.01       0          0          0          0
3                LOHRRD           93-49839         688.78     0.01       0          0          0          0
4                93-49839         93-50227         265.5      0.01       0          0          0          0
5                93-50227         93-50228         129.22     0.01       0          0          0          0
6                93-50228         93-50227         129.27     0.01       0          0          0          0
7                91-51098         93-50230         3833.06    0.01       0          0          0          0
9                93-49919         93-49921         184.86     0.01       0          0          0          0
;95-68856
95-53307         93-50074         93-49921         635.000000 0.013000   5.600000   0.000000   0.000000   0.000000
;US Node merged w/jn; DS Node combined with storage
95-67716         93-50230         93-49743         148.000000 0.013000   6.290000   13.100000  0.000000   0.000000
95-81105_3       WATERSRD3        WATERSRD2        593.000000 0.013000   0.000000   0.000000   0.000000   0.000000
95-81112         OAKVALLEY1       91-51098         700.000000 0.013000   0.000000   2.000000   0.000000   16.200000
8                2                93-50074         400        0.01       0          0          0          0
13               3                1                400        0.01       0          0          0          0
26               4                93-50076         400        0.01       0          0          0          0
28               5                93-49919         400        0.01       0          0          0          0
30               6                LOHRRD           400        0.01       0          0          0          0

[ORIFICES]
;;Name           From Node        To Node          Type         Offset     Qcoeff     Gated    CloseTime
;;-------------- ---------------- ---------------- ------------ ---------- ---------- -------- ----------
23               93-49743         2                BOTTOM       0          0.65       NO       0
24               93-50077         3                BOTTOM       0          0.65       NO       0
25               93-49921         4                BOTTOM       0          0.65       NO       0
27               93-50225         5                BOTTOM       0          0.65       NO       0
29               WATERSRD1        6                BOTTOM       0          0.65       NO       0         

[XSECTIONS]
;;Link           Shape        Geom1            Geom2      Geom3      Geom4      Barrels    Culvert
;;-------------- ------------ ---------------- ---------- ---------- ---------- ---------- ----------
1                CIRCULAR     1                0          0          0          1
11               CIRCULAR     1                0          0          0          1
12               CIRCULAR     1                0          0          0          1
14               CIRCULAR     1                0          0          0          1
15               CIRCULAR     1                0          0          0          1
16               CIRCULAR     1                0          0          0          1
17               CIRCULAR     1                0          0          0          1
18               CIRCULAR     1                0          0          0          1
19               CIRCULAR     1                0          0          0          1
20               CIRCULAR     1                0          0          0          1
22               CIRCULAR     1                0          0          0          1
3                CIRCULAR     1                0          0          0          1
4                CIRCULAR     1                0          0          0          1
5                CIRCULAR     1                0          0          0          1
6                CIRCULAR     1                0          0          0          1
7                CIRCULAR     1                0          0          0          1
9                CIRCULAR     1                0          0          0          1
95-53307         CIRCULAR     6.500000         0.000000   0.000000   0.000000   2          0
95-67716         CIRCULAR     1.500000         0.000000   0.000000   0.000000   1          0
95-81105_3       CIRCULAR     2.000000         0.000000   0.000000   0.000000   1          0
95-81112         CIRCULAR     1.750000         0.000000   0.000000   0.000000   1          0
8                CIRCULAR     1                0          0          0          1
13               CIRCULAR     1                0          0          0          1
26               CIRCULAR     1                0          0          0          1
28               CIRCULAR     1                0          0          0          1
30               CIRCULAR     1                0          0          0          1
23               CIRCULAR     1                0          0          0
24               CIRCULAR     1                0          0          0
25               CIRCULAR     1                0          0          0
27               CIRCULAR     1                0          0          0
29               CIRCULAR     1                0          0          0

[TRANSECTS]
;;Transect Data in HEC-2 format
;
;Mallets Creekshed: field + contours
NC 0.075000 0.075000 0.035000
X1 MAC_BRIARCOVE1    16       41.420000 46.340000 0.0      0.0      0.000000 0.000000 0.000000
GR 20       0        5.82     0.1      3.82     23.7     2.18     34       1.95     37.65
GR 1.8      41.42    0.27     43.08    0        44.15    0.66     45.33    1.65     46.34
GR 1.98     55.4     2.59     61.99    3.48     65.52    5.15     69.53    5.92     73.36
GR 20       74
;
;Mallets Creekshed: field + contours
NC 0.075000 0.075000 0.035000
X1 MAC_BRIARCOVE2    18       69.930000 75.070000 0.0      0.0      0.000000 0.000000 0.000000
GR 20       0        6.02     0.1      4.02     1.7      2.02     11       1.89     60
GR 1.39     64.62    1.75     68.87    1.04     69.93    0        72.2     0.89     75.07
GR 1.31     77.34    1.47     77.38    1.91     79.85    1.63     84.95    2.02     117.95
GR 4.02     124.95   6.02     143.95   20       144
;
;Mallets Creekshed: field, L est from R
NC 0.075000 0.075000 0.035000
X1 MAC_WAYMARKET1    14       7.700000 16.100000 0.0      0.0      0.000000 0.000000 0.000000
GR 20       0        4.64     0.1      3.84     1.5      2.98     2.8      1.72     4.9
GR 0.14     7.7      0        12.2     0.19     16.1     1.36     20.4     2.12     23.5
GR 3.32     25.9     4.18     28.9     4.44     32.9     20       33
;
;Mallets Creekshed: field + contours
NC 0.060000 0.040000 0.035000
X1 MAC_WAYMARKET3    17       42.390000 59.390000 0.0      0.0      0.000000 0.000000 0.000000
GR 20       0        6.11     0.1      4.11     6        2.77     13       2.47     16
GR 2.28     23.38    2.08     29.85    1.85     36.77    1.03     42.39    0        52.39
GR 1.19     59.39    1.69     65.85    2.32     71.18    3.64     75.82    4.93     80.47
GR 6.11     89       20       89.1
;
;Mallets Creekshed: field + contours
NC 0.040000 0.040000 0.035000
X1 MACSSW12951       16       22.900000 26.470000 0.0      0.0      0.000000 0.000000 0.000000
GR 13.48    0        11.48    4        6.79     9        5.34     11.13    4.01     12.89
GR 2.58     16.07    1.88     22.01    0.38     22.9     0        24.72    0.47     26.47
GR 2.13     27.99    3.01     31.84    7.48     35.94    8.48     38.79    11.48    45.79
GR 13.48    55.79
;
;Mallets Creekshed: field
NC 0.040000 0.040000 0.035000
X1 MACSSW15715       15       9.310000 21.200000 0.0      0.0      0.000000 0.000000 0.000000
GR 20       0        8.26     0.1      6.53     2.76     3.99     7        1.5      9.31
GR 0        16.02    1.6      21.2     2.03     22.81    2.62     25.9     3.5      27.91
GR 4.82     30.59    5.79     31.73    7        33.62    9.11     37.5     20       38
;
;Mallets Creekshed: field + contours
NC 0.075000 0.075000 0.035000
X1 MACSSW16780       19       155.640000 163.460010 0.0      0.0      0.000000 0.000000 0.000000
GR 20       0        7.23     0.1      3.23     18       1.23     127      1.56     140
GR 1.25     144.74   1.12     147.03   0.79     149.93   0.94     155.64   0.55     158.02
GR 0        159.6    0.56     161.63   0.78     163.46   1.24     168.26   2.13     170.86
GR 3.15     174.21   5.23     179      7.23     185      20       185.1
;
;Mallets Creekshed: field + contours
NC 0.075000 0.075000 0.035000
X1 MACSSW17152       17       127.660000 133.899990 0.0      0.0      0.000000 0.000000 0.000000
GR 20       0        1.93     0.1      2.43     98       2.37     123.29   1.56     125.88
GR 0.96     127.66   0        130.25   1.07     133.9    1.92     136.4    2.07     136.86
GR 2.51     139.1    2.27     142.63   2.37     168.96   2.32     175.62   3.95     232.62
GR 7.95     305.62   20       306
;
;Mallets Creekshed: field
NC 0.075000 0.075000 0.035000
X1 MACSSW17152A      14       17.670000 24.800000 0.0      0.0      0.000000 0.000000 0.000000
GR 20       0        3.6      0.1      3.31     7.45     2.69     11.07    2.58     17.67
GR 0        19.84    0.66     23.68    2.54     24.8     2.96     26.89    2.59     43.5
GR 2.77     52.95    3.04     91.57    3.05     129.57   20       129.67
;
;Mallets Creekshed: field + contours
NC 0.075000 0.075000 0.035000
X1 MACSSW5921        18       77.800000 86.800000 0.0      0.0      0.000000 0.000000 0.000000
GR 11.77    0        9.77     17       7.77     37       5.77     55       3.26     71
GR 2.66     76       2.02     77.8     0        78.9     0.06     82       0.44     86
GR 1.92     86.8     2.98     89.1     3.39     89.7     4.08     89.9     5.77     91.6
GR 7.77     97.9     9.77     104.4    11.77    111.5
;
;Mallets Creekshed: field
NC 0.075000 0.075000 0.035000
X1 MACSSW6390        17       126.000000 141.920000 0.0      0.0      0.000000 0.000000 0.000000
GR 9.49     0        9.49     99       7.49     109      5.49     118      4.05     126
GR 0        130.19   0.22     136.28   0.39     141.02   1.26     141.92   2.24     144.71
GR 3.45     146.88   4.25     148.91   5.85     152.4    6.38     153.91   7.49     158
GR 9.49     162      11.49    214.91
;
;Mallets Creekshed: field + contours
NC 0.075000 0.075000 0.035000
X1 MACSSW7019        12       26.860000 46.710000 0.0      0.0      0.000000 0.000000 0.000000
GR 20       0        7.96     0.1      5.96     13       4.97     15       4        18.42
GR 0.6      26.86    0        36.63    0.64     46.71    3.31     51.72    4.4      54.18
GR 7.96     67.18    20       68
;
;typical road crown for 66-ft ROW and 33-ft-wide pavement
NC 0.025000 0.025000 0.018000
X1 ROAD_30FT         11       15.500000 50.500000 0.0      0.0      0.000000 0.000000 0.000000